test/no-generator.xiidm
<?xml version="1.0" encoding="UTF-8"?>
<iidm:network xmlns:iidm="http://www.powsybl.org/schema/iidm/1_16" id="Default" caseDate="2026-09-23T08:52:39.468Z" forecastDistance="0" sourceFormat="" minimumValidationLevel="STEADY_STATE_HYPOTHESIS">
    <iidm:substation id="S1">
        <iidm:voltageLevel id="VL1" nominalV="400.0" topologyKind="BUS_BREAKER">
            <iidm:busBreakerTopology>
                <iidm:bus id="B1"/>
                <iidm:bus id="B2"/>
            </iidm:busBreakerTopology>
            <iidm:load id="L1" loadType="UNDEFINED" p0="10.0" q0="1.0" bus="B1" connectableBus="B1"/>
        </iidm:voltageLevel>
    </iidm:substation>
    <iidm:line id="LN" r="0.1" x="1.0" g1="0.0" b1="0.0" g2="0.0" b2="0.0" voltageLevelId1="VL1" bus1="B1" connectableBus1="B1" voltageLevelId2="VL1" bus2="B2" connectableBus2="B2"/>
</iidm:network>
